
Circuit: * spicenetlist

Doing analysis at TEMP = 0.000000 and TNOM = 27.000000

Note: Starting dynamic gmin stepping
Trying gmin =   1.0000E-03 Note: One successful gmin step
Trying gmin =   1.0000E-04 Note: One successful gmin step
Trying gmin =   1.0000E-05 Note: One successful gmin step
Trying gmin =   1.0000E-06 Note: One successful gmin step
Trying gmin =   1.0000E-07 Note: One successful gmin step
Trying gmin =   1.0000E-08 Note: One successful gmin step
Trying gmin =   1.0000E-09 Note: One successful gmin step
Trying gmin =   1.0000E-10 Note: One successful gmin step
Trying gmin =   1.0000E-11 Note: One successful gmin step
Trying gmin =   1.0000E-12 Note: One successful gmin step
Trying gmin =   1.0000E-12 Note: One successful gmin step
Note: Dynamic gmin stepping completed


No. of Data Rows : 501
                                 * spicenetlist
                                 DC transfer characteristic  Fri Jun 15 12:11:36  2018
--------------------------------------------------------------------------------
Index   i-sweep         v(out)          v(in)           v_vcur_1#branch 
--------------------------------------------------------------------------------
0	0.000000e+00	2.078587e+01	2.483168e+01	8.163267e-12	
1	6.000000e-03	2.059183e+01	2.459284e+01	4.338940e-09	
2	1.200000e-02	2.054983e+01	2.436242e+01	2.368535e-04	
3	1.800000e-02	2.054441e+01	2.429898e+01	4.616237e-03	
4	2.400000e-02	2.054173e+01	2.428131e+01	1.013013e-02	
5	3.000000e-02	2.054016e+01	2.427107e+01	1.582795e-02	
6	3.600000e-02	2.053897e+01	2.426342e+01	2.158992e-02	
7	4.200000e-02	2.053805e+01	2.425752e+01	2.739545e-02	
8	4.800000e-02	2.053727e+01	2.425254e+01	3.322357e-02	
9	5.400000e-02	2.053658e+01	2.424816e+01	3.906661e-02	
10	6.000000e-02	2.053596e+01	2.424425e+01	4.492107e-02	
11	6.600000e-02	2.053539e+01	2.424069e+01	5.078428e-02	
12	7.200000e-02	2.053486e+01	2.423740e+01	5.665435e-02	
13	7.800000e-02	2.053437e+01	2.423435e+01	6.252994e-02	
14	8.400000e-02	2.053390e+01	2.423148e+01	6.841007e-02	
15	9.000000e-02	2.053346e+01	2.422876e+01	7.429397e-02	
16	9.600000e-02	2.053304e+01	2.422617e+01	8.018108e-02	
17	1.020000e-01	2.053264e+01	2.422370e+01	8.607095e-02	
18	1.080000e-01	2.053225e+01	2.422132e+01	9.196319e-02	
19	1.140000e-01	2.053187e+01	2.421903e+01	9.785752e-02	
20	1.200000e-01	2.053150e+01	2.421682e+01	1.037537e-01	
21	1.260000e-01	2.053115e+01	2.421468e+01	1.096515e-01	
22	1.320000e-01	2.053080e+01	2.421259e+01	1.155507e-01	
23	1.380000e-01	2.053047e+01	2.421056e+01	1.214513e-01	
24	1.440000e-01	2.053014e+01	2.420858e+01	1.273530e-01	
25	1.500000e-01	2.052981e+01	2.420665e+01	1.332558e-01	
26	1.560000e-01	2.052950e+01	2.420475e+01	1.391595e-01	
27	1.620000e-01	2.052919e+01	2.420289e+01	1.450642e-01	
28	1.680000e-01	2.052888e+01	2.420107e+01	1.509696e-01	
29	1.740000e-01	2.052858e+01	2.419928e+01	1.568758e-01	
30	1.800000e-01	2.052829e+01	2.419752e+01	1.627827e-01	
31	1.860000e-01	2.052800e+01	2.419579e+01	1.686902e-01	
32	1.920000e-01	2.052771e+01	2.419408e+01	1.745983e-01	
33	1.980000e-01	2.052743e+01	2.419240e+01	1.805070e-01	
34	2.040000e-01	2.052715e+01	2.419074e+01	1.864161e-01	
35	2.100000e-01	2.052687e+01	2.418910e+01	1.923257e-01	
36	2.160000e-01	2.052660e+01	2.418748e+01	1.982358e-01	
37	2.220000e-01	2.052633e+01	2.418588e+01	2.041463e-01	
38	2.280000e-01	2.052606e+01	2.418429e+01	2.100572e-01	
39	2.340000e-01	2.052579e+01	2.418273e+01	2.159684e-01	
40	2.400000e-01	2.052553e+01	2.418118e+01	2.218799e-01	
41	2.460000e-01	2.052527e+01	2.417964e+01	2.277918e-01	
42	2.520000e-01	2.052501e+01	2.417812e+01	2.337040e-01	
43	2.580000e-01	2.052476e+01	2.417661e+01	2.396165e-01	
44	2.640000e-01	2.052451e+01	2.417511e+01	2.455292e-01	
45	2.700000e-01	2.052425e+01	2.417363e+01	2.514422e-01	
46	2.760000e-01	2.052400e+01	2.417216e+01	2.573554e-01	
47	2.820000e-01	2.052376e+01	2.417069e+01	2.632689e-01	
48	2.880000e-01	2.052351e+01	2.416924e+01	2.691825e-01	
49	2.940000e-01	2.052327e+01	2.416780e+01	2.750964e-01	
50	3.000000e-01	2.052302e+01	2.416637e+01	2.810104e-01	
51	3.060000e-01	2.052278e+01	2.416495e+01	2.869246e-01	
52	3.120000e-01	2.052254e+01	2.416354e+01	2.928390e-01	
53	3.180000e-01	2.052230e+01	2.416213e+01	2.987536e-01	
54	3.240000e-01	2.052206e+01	2.416073e+01	3.046683e-01	

Index   i-sweep         v(out)          v(in)           v_vcur_1#branch 
--------------------------------------------------------------------------------
55	3.300000e-01	2.052183e+01	2.415935e+01	3.105832e-01	
56	3.360000e-01	2.052159e+01	2.415797e+01	3.164981e-01	
57	3.420000e-01	2.052136e+01	2.415659e+01	3.224133e-01	
58	3.480000e-01	2.052113e+01	2.415523e+01	3.283285e-01	
59	3.540000e-01	2.052090e+01	2.415387e+01	3.342439e-01	
60	3.600000e-01	2.052067e+01	2.415251e+01	3.401594e-01	
61	3.660000e-01	2.052044e+01	2.415117e+01	3.460749e-01	
62	3.720000e-01	2.052021e+01	2.414982e+01	3.519906e-01	
63	3.780000e-01	2.051998e+01	2.414849e+01	3.579064e-01	
64	3.840000e-01	2.051975e+01	2.414716e+01	3.638223e-01	
65	3.900000e-01	2.051953e+01	2.414584e+01	3.697383e-01	
66	3.960000e-01	2.051930e+01	2.414452e+01	3.756543e-01	
67	4.020000e-01	2.051908e+01	2.414321e+01	3.815704e-01	
68	4.080000e-01	2.051886e+01	2.414190e+01	3.874866e-01	
69	4.140000e-01	2.051864e+01	2.414059e+01	3.934029e-01	
70	4.200000e-01	2.051842e+01	2.413930e+01	3.993192e-01	
71	4.260000e-01	2.051819e+01	2.413800e+01	4.052356e-01	
72	4.320000e-01	2.051798e+01	2.413671e+01	4.111521e-01	
73	4.380000e-01	2.051776e+01	2.413543e+01	4.170686e-01	
74	4.440000e-01	2.051754e+01	2.413415e+01	4.229851e-01	
75	4.500000e-01	2.051732e+01	2.413287e+01	4.289018e-01	
76	4.560000e-01	2.051710e+01	2.413159e+01	4.348184e-01	
77	4.620000e-01	2.051689e+01	2.413033e+01	4.407351e-01	
78	4.680000e-01	2.051667e+01	2.412906e+01	4.466519e-01	
79	4.740000e-01	2.051646e+01	2.412780e+01	4.525687e-01	
80	4.800000e-01	2.051624e+01	2.412654e+01	4.584855e-01	
81	4.860000e-01	2.051603e+01	2.412529e+01	4.644024e-01	
82	4.920000e-01	2.051582e+01	2.412403e+01	4.703193e-01	
83	4.980000e-01	2.051560e+01	2.412279e+01	4.762362e-01	
84	5.040000e-01	2.051539e+01	2.412154e+01	4.821532e-01	
85	5.100000e-01	2.051518e+01	2.412030e+01	4.880702e-01	
86	5.160000e-01	2.051497e+01	2.411906e+01	4.939872e-01	
87	5.220000e-01	2.051476e+01	2.411782e+01	4.999042e-01	
88	5.280000e-01	2.051455e+01	2.411659e+01	5.058213e-01	
89	5.340000e-01	2.051434e+01	2.411536e+01	5.117384e-01	
90	5.400000e-01	2.051413e+01	2.411413e+01	5.176555e-01	
91	5.460000e-01	2.051392e+01	2.411291e+01	5.235726e-01	
92	5.520000e-01	2.051371e+01	2.411169e+01	5.294897e-01	
93	5.580000e-01	2.051350e+01	2.411047e+01	5.354069e-01	
94	5.640000e-01	2.051330e+01	2.410925e+01	5.413241e-01	
95	5.700000e-01	2.051309e+01	2.410804e+01	5.472412e-01	
96	5.760000e-01	2.051288e+01	2.410682e+01	5.531584e-01	
97	5.820000e-01	2.051268e+01	2.410561e+01	5.590756e-01	
98	5.880000e-01	2.051247e+01	2.410441e+01	5.649928e-01	
99	5.940000e-01	2.051227e+01	2.410320e+01	5.709100e-01	
100	6.000000e-01	2.051206e+01	2.410200e+01	5.768272e-01	
101	6.060000e-01	2.051186e+01	2.410080e+01	5.827444e-01	
102	6.120000e-01	2.051165e+01	2.409960e+01	5.886616e-01	
103	6.180000e-01	2.051145e+01	2.409840e+01	5.945789e-01	
104	6.240000e-01	2.051125e+01	2.409721e+01	6.004961e-01	
105	6.300000e-01	2.051104e+01	2.409602e+01	6.064133e-01	
106	6.360000e-01	2.051084e+01	2.409483e+01	6.123305e-01	
107	6.420000e-01	2.051064e+01	2.409364e+01	6.182477e-01	
108	6.480000e-01	2.051043e+01	2.409245e+01	6.241649e-01	
109	6.540000e-01	2.051023e+01	2.409126e+01	6.300821e-01	
110	6.600000e-01	2.051003e+01	2.409008e+01	6.359993e-01	
111	6.660000e-01	2.050983e+01	2.408890e+01	6.419165e-01	
112	6.720000e-01	2.050963e+01	2.408772e+01	6.478337e-01	

Index   i-sweep         v(out)          v(in)           v_vcur_1#branch 
--------------------------------------------------------------------------------
113	6.780000e-01	2.050943e+01	2.408654e+01	6.537509e-01	
114	6.840000e-01	2.050923e+01	2.408537e+01	6.596681e-01	
115	6.900000e-01	2.050903e+01	2.408419e+01	6.655852e-01	
116	6.960000e-01	2.050883e+01	2.408302e+01	6.715024e-01	
117	7.020000e-01	2.050863e+01	2.408185e+01	6.774195e-01	
118	7.080000e-01	2.050843e+01	2.408068e+01	6.833367e-01	
119	7.140000e-01	2.050823e+01	2.407951e+01	6.892538e-01	
120	7.200000e-01	2.050803e+01	2.407834e+01	6.951709e-01	
121	7.260000e-01	2.050783e+01	2.407718e+01	7.010880e-01	
122	7.320000e-01	2.050764e+01	2.407601e+01	7.070051e-01	
123	7.380000e-01	2.050744e+01	2.407485e+01	7.129221e-01	
124	7.440000e-01	2.050724e+01	2.407369e+01	7.188392e-01	
125	7.500000e-01	2.050704e+01	2.407253e+01	7.247562e-01	
126	7.560000e-01	2.050684e+01	2.407137e+01	7.306732e-01	
127	7.620000e-01	2.050665e+01	2.407022e+01	7.365902e-01	
128	7.680000e-01	2.050645e+01	2.406906e+01	7.425072e-01	
129	7.740000e-01	2.050625e+01	2.406791e+01	7.484242e-01	
130	7.800000e-01	2.050606e+01	2.406675e+01	7.543411e-01	
131	7.860000e-01	2.050586e+01	2.406560e+01	7.602580e-01	
132	7.920000e-01	2.050567e+01	2.406445e+01	7.661749e-01	
133	7.980000e-01	2.050547e+01	2.406330e+01	7.720918e-01	
134	8.040000e-01	2.050527e+01	2.406215e+01	7.780087e-01	
135	8.100000e-01	2.050508e+01	2.406101e+01	7.839255e-01	
136	8.160000e-01	2.050488e+01	2.405986e+01	7.898424e-01	
137	8.220000e-01	2.050469e+01	2.405872e+01	7.957592e-01	
138	8.280000e-01	2.050449e+01	2.405757e+01	8.016760e-01	
139	8.340000e-01	2.050430e+01	2.405643e+01	8.075927e-01	
140	8.400000e-01	2.050410e+01	2.405529e+01	8.135094e-01	
141	8.460000e-01	2.050391e+01	2.405415e+01	8.194262e-01	
142	8.520000e-01	2.050372e+01	2.405301e+01	8.253428e-01	
143	8.580000e-01	2.050352e+01	2.405187e+01	8.312595e-01	
144	8.640000e-01	2.050333e+01	2.405073e+01	8.371761e-01	
145	8.700000e-01	2.050313e+01	2.404960e+01	8.430927e-01	
146	8.760000e-01	2.050294e+01	2.404846e+01	8.490093e-01	
147	8.820000e-01	2.050275e+01	2.404733e+01	8.549259e-01	
148	8.880000e-01	2.050255e+01	2.404620e+01	8.608424e-01	
149	8.940000e-01	2.050236e+01	2.404506e+01	8.667589e-01	
150	9.000000e-01	2.050217e+01	2.404393e+01	8.726754e-01	
151	9.060000e-01	2.050198e+01	2.404280e+01	8.785919e-01	
152	9.120000e-01	2.050178e+01	2.404167e+01	8.845083e-01	
153	9.180000e-01	2.050159e+01	2.404054e+01	8.904247e-01	
154	9.240000e-01	2.050140e+01	2.403941e+01	8.963411e-01	
155	9.300000e-01	2.050121e+01	2.403829e+01	9.022574e-01	
156	9.360000e-01	2.050101e+01	2.403716e+01	9.081737e-01	
157	9.420000e-01	2.050082e+01	2.403604e+01	9.140900e-01	
158	9.480000e-01	2.050063e+01	2.403491e+01	9.200062e-01	
159	9.540000e-01	2.050044e+01	2.403379e+01	9.259225e-01	
160	9.600000e-01	2.050025e+01	2.403267e+01	9.318387e-01	
161	9.660000e-01	2.050006e+01	2.403154e+01	9.377548e-01	
162	9.720000e-01	2.049986e+01	2.403042e+01	9.436710e-01	
163	9.780000e-01	2.049967e+01	2.402930e+01	9.495871e-01	
164	9.840000e-01	2.049948e+01	2.402818e+01	9.555031e-01	
165	9.900000e-01	2.049929e+01	2.402706e+01	9.614192e-01	
166	9.960000e-01	2.049910e+01	2.402595e+01	9.673352e-01	
167	1.002000e+00	2.049891e+01	2.402483e+01	9.732512e-01	
168	1.008000e+00	2.049872e+01	2.402371e+01	9.791671e-01	
169	1.014000e+00	2.049853e+01	2.402260e+01	9.850830e-01	
170	1.020000e+00	2.049834e+01	2.402148e+01	9.909989e-01	

Index   i-sweep         v(out)          v(in)           v_vcur_1#branch 
--------------------------------------------------------------------------------
171	1.026000e+00	2.049815e+01	2.402037e+01	9.969147e-01	
172	1.032000e+00	2.049796e+01	2.401925e+01	1.002831e+00	
173	1.038000e+00	2.049777e+01	2.401814e+01	1.008746e+00	
174	1.044000e+00	2.049758e+01	2.401703e+01	1.014662e+00	
175	1.050000e+00	2.049739e+01	2.401592e+01	1.020578e+00	
176	1.056000e+00	2.049720e+01	2.401480e+01	1.026493e+00	
177	1.062000e+00	2.049701e+01	2.401369e+01	1.032409e+00	
178	1.068000e+00	2.049682e+01	2.401258e+01	1.038325e+00	
179	1.074000e+00	2.049663e+01	2.401148e+01	1.044240e+00	
180	1.080000e+00	2.049644e+01	2.401037e+01	1.050156e+00	
181	1.086000e+00	2.049625e+01	2.400926e+01	1.056071e+00	
182	1.092000e+00	2.049606e+01	2.400815e+01	1.061987e+00	
183	1.098000e+00	2.049587e+01	2.400704e+01	1.067902e+00	
184	1.104000e+00	2.049568e+01	2.400594e+01	1.073818e+00	
185	1.110000e+00	2.049550e+01	2.400483e+01	1.079733e+00	
186	1.116000e+00	2.049531e+01	2.400373e+01	1.085648e+00	
187	1.122000e+00	2.049512e+01	2.400262e+01	1.091564e+00	
188	1.128000e+00	2.049493e+01	2.400152e+01	1.097479e+00	
189	1.134000e+00	2.049474e+01	2.400042e+01	1.103394e+00	
190	1.140000e+00	2.049455e+01	2.399931e+01	1.109309e+00	
191	1.146000e+00	2.049436e+01	2.399821e+01	1.115224e+00	
192	1.152000e+00	2.049417e+01	2.399711e+01	1.121140e+00	
193	1.158000e+00	2.049399e+01	2.399601e+01	1.127055e+00	
194	1.164000e+00	2.049380e+01	2.399491e+01	1.132970e+00	
195	1.170000e+00	2.049361e+01	2.399381e+01	1.138885e+00	
196	1.176000e+00	2.049342e+01	2.399271e+01	1.144800e+00	
197	1.182000e+00	2.049323e+01	2.399161e+01	1.150715e+00	
198	1.188000e+00	2.049305e+01	2.399051e+01	1.156629e+00	
199	1.194000e+00	2.049286e+01	2.398942e+01	1.162544e+00	
200	1.200000e+00	2.049267e+01	2.398832e+01	1.168459e+00	
201	1.206000e+00	2.049248e+01	2.398722e+01	1.174374e+00	
202	1.212000e+00	2.049229e+01	2.398612e+01	1.180289e+00	
203	1.218000e+00	2.049211e+01	2.398503e+01	1.186203e+00	
204	1.224000e+00	2.049192e+01	2.398393e+01	1.192118e+00	
205	1.230000e+00	2.049173e+01	2.398284e+01	1.198033e+00	
206	1.236000e+00	2.049154e+01	2.398174e+01	1.203947e+00	
207	1.242000e+00	2.049136e+01	2.398065e+01	1.209862e+00	
208	1.248000e+00	2.049117e+01	2.397956e+01	1.215776e+00	
209	1.254000e+00	2.049098e+01	2.397846e+01	1.221691e+00	
210	1.260000e+00	2.049079e+01	2.397737e+01	1.227605e+00	
211	1.266000e+00	2.049061e+01	2.397628e+01	1.233520e+00	
212	1.272000e+00	2.049042e+01	2.397519e+01	1.239434e+00	
213	1.278000e+00	2.049023e+01	2.397409e+01	1.245348e+00	
214	1.284000e+00	2.049005e+01	2.397300e+01	1.251262e+00	
215	1.290000e+00	2.048986e+01	2.397191e+01	1.257177e+00	
216	1.296000e+00	2.048967e+01	2.397082e+01	1.263091e+00	
217	1.302000e+00	2.048948e+01	2.396973e+01	1.269005e+00	
218	1.308000e+00	2.048930e+01	2.396864e+01	1.274919e+00	
219	1.314000e+00	2.048911e+01	2.396756e+01	1.280833e+00	
220	1.320000e+00	2.048892e+01	2.396647e+01	1.286747e+00	
221	1.326000e+00	2.048874e+01	2.396538e+01	1.292661e+00	
222	1.332000e+00	2.048855e+01	2.396429e+01	1.298575e+00	
223	1.338000e+00	2.048836e+01	2.396320e+01	1.304489e+00	
224	1.344000e+00	2.048818e+01	2.396212e+01	1.310403e+00	
225	1.350000e+00	2.048799e+01	2.396103e+01	1.316317e+00	
226	1.356000e+00	2.048780e+01	2.395994e+01	1.322231e+00	
227	1.362000e+00	2.048762e+01	2.395886e+01	1.328144e+00	
228	1.368000e+00	2.048743e+01	2.395777e+01	1.334058e+00	

Index   i-sweep         v(out)          v(in)           v_vcur_1#branch 
--------------------------------------------------------------------------------
229	1.374000e+00	2.048724e+01	2.395669e+01	1.339972e+00	
230	1.380000e+00	2.048706e+01	2.395560e+01	1.345885e+00	
231	1.386000e+00	2.048687e+01	2.395452e+01	1.351799e+00	
232	1.392000e+00	2.048668e+01	2.395343e+01	1.357712e+00	
233	1.398000e+00	2.048650e+01	2.395235e+01	1.363626e+00	
234	1.404000e+00	2.048631e+01	2.395127e+01	1.369539e+00	
235	1.410000e+00	2.048612e+01	2.395018e+01	1.375453e+00	
236	1.416000e+00	2.048594e+01	2.394910e+01	1.381366e+00	
237	1.422000e+00	2.048575e+01	2.394802e+01	1.387279e+00	
238	1.428000e+00	2.048557e+01	2.394694e+01	1.393193e+00	
239	1.434000e+00	2.048538e+01	2.394586e+01	1.399106e+00	
240	1.440000e+00	2.048519e+01	2.394478e+01	1.405019e+00	
241	1.446000e+00	2.048501e+01	2.394369e+01	1.410932e+00	
242	1.452000e+00	2.048482e+01	2.394261e+01	1.416845e+00	
243	1.458000e+00	2.048463e+01	2.394153e+01	1.422759e+00	
244	1.464000e+00	2.048445e+01	2.394045e+01	1.428672e+00	
245	1.470000e+00	2.048426e+01	2.393937e+01	1.434585e+00	
246	1.476000e+00	2.048408e+01	2.393829e+01	1.440497e+00	
247	1.482000e+00	2.048389e+01	2.393722e+01	1.446410e+00	
248	1.488000e+00	2.048370e+01	2.393614e+01	1.452323e+00	
249	1.494000e+00	2.048352e+01	2.393506e+01	1.458236e+00	
250	1.500000e+00	2.048333e+01	2.393398e+01	1.464149e+00	
251	1.506000e+00	2.048314e+01	2.393290e+01	1.470062e+00	
252	1.512000e+00	2.048296e+01	2.393182e+01	1.475974e+00	
253	1.518000e+00	2.048277e+01	2.393075e+01	1.481887e+00	
254	1.524000e+00	2.048259e+01	2.392967e+01	1.487799e+00	
255	1.530000e+00	2.048240e+01	2.392859e+01	1.493712e+00	
256	1.536000e+00	2.048221e+01	2.392752e+01	1.499625e+00	
257	1.542000e+00	2.048203e+01	2.392644e+01	1.505537e+00	
258	1.548000e+00	2.048184e+01	2.392537e+01	1.511449e+00	
259	1.554000e+00	2.048166e+01	2.392429e+01	1.517362e+00	
260	1.560000e+00	2.048147e+01	2.392321e+01	1.523274e+00	
261	1.566000e+00	2.048128e+01	2.392214e+01	1.529186e+00	
262	1.572000e+00	2.048110e+01	2.392106e+01	1.535099e+00	
263	1.578000e+00	2.048091e+01	2.391999e+01	1.541011e+00	
264	1.584000e+00	2.048073e+01	2.391892e+01	1.546923e+00	
265	1.590000e+00	2.048054e+01	2.391784e+01	1.552835e+00	
266	1.596000e+00	2.048036e+01	2.391677e+01	1.558747e+00	
267	1.602000e+00	2.048017e+01	2.391569e+01	1.564659e+00	
268	1.608000e+00	2.047998e+01	2.391462e+01	1.570571e+00	
269	1.614000e+00	2.047980e+01	2.391355e+01	1.576483e+00	
270	1.620000e+00	2.047961e+01	2.391248e+01	1.582395e+00	
271	1.626000e+00	2.047943e+01	2.391140e+01	1.588307e+00	
272	1.632000e+00	2.047924e+01	2.391033e+01	1.594219e+00	
273	1.638000e+00	2.047905e+01	2.390926e+01	1.600131e+00	
274	1.644000e+00	2.047887e+01	2.390819e+01	1.606042e+00	
275	1.650000e+00	2.047868e+01	2.390712e+01	1.611954e+00	
276	1.656000e+00	2.047850e+01	2.390604e+01	1.617866e+00	
277	1.662000e+00	2.047831e+01	2.390497e+01	1.623777e+00	
278	1.668000e+00	2.047812e+01	2.390390e+01	1.629689e+00	
279	1.674000e+00	2.047794e+01	2.390283e+01	1.635600e+00	
280	1.680000e+00	2.047775e+01	2.390176e+01	1.641512e+00	
281	1.686000e+00	2.047757e+01	2.390069e+01	1.647423e+00	
282	1.692000e+00	2.047738e+01	2.389962e+01	1.653334e+00	
283	1.698000e+00	2.047719e+01	2.389855e+01	1.659246e+00	
284	1.704000e+00	2.047701e+01	2.389748e+01	1.665157e+00	
285	1.710000e+00	2.047682e+01	2.389641e+01	1.671068e+00	
286	1.716000e+00	2.047664e+01	2.389534e+01	1.676979e+00	

Index   i-sweep         v(out)          v(in)           v_vcur_1#branch 
--------------------------------------------------------------------------------
287	1.722000e+00	2.047645e+01	2.389428e+01	1.682891e+00	
288	1.728000e+00	2.047626e+01	2.389321e+01	1.688802e+00	
289	1.734000e+00	2.047608e+01	2.389214e+01	1.694713e+00	
290	1.740000e+00	2.047589e+01	2.389107e+01	1.700624e+00	
291	1.746000e+00	2.047571e+01	2.389000e+01	1.706535e+00	
292	1.752000e+00	2.047552e+01	2.388893e+01	1.712445e+00	
293	1.758000e+00	2.047533e+01	2.388787e+01	1.718356e+00	
294	1.764000e+00	2.047515e+01	2.388680e+01	1.724267e+00	
295	1.770000e+00	2.047496e+01	2.388573e+01	1.730178e+00	
296	1.776000e+00	2.047478e+01	2.388467e+01	1.736089e+00	
297	1.782000e+00	2.047459e+01	2.388360e+01	1.741999e+00	
298	1.788000e+00	2.047440e+01	2.388253e+01	1.747910e+00	
299	1.794000e+00	2.047422e+01	2.388147e+01	1.753821e+00	
300	1.800000e+00	2.047403e+01	2.388040e+01	1.759731e+00	
301	1.806000e+00	2.047384e+01	2.387933e+01	1.765642e+00	
302	1.812000e+00	2.047366e+01	2.387827e+01	1.771552e+00	
303	1.818000e+00	2.047347e+01	2.387720e+01	1.777462e+00	
304	1.824000e+00	2.047329e+01	2.387614e+01	1.783373e+00	
305	1.830000e+00	2.047310e+01	2.387507e+01	1.789283e+00	
306	1.836000e+00	2.047291e+01	2.387401e+01	1.795193e+00	
307	1.842000e+00	2.047273e+01	2.387294e+01	1.801104e+00	
308	1.848000e+00	2.047254e+01	2.387188e+01	1.807014e+00	
309	1.854000e+00	2.047235e+01	2.387081e+01	1.812924e+00	
310	1.860000e+00	2.047217e+01	2.386975e+01	1.818834e+00	
311	1.866000e+00	2.047198e+01	2.386868e+01	1.824744e+00	
312	1.872000e+00	2.047179e+01	2.386762e+01	1.830654e+00	
313	1.878000e+00	2.047161e+01	2.386656e+01	1.836564e+00	
314	1.884000e+00	2.047142e+01	2.386549e+01	1.842474e+00	
315	1.890000e+00	2.047123e+01	2.386443e+01	1.848384e+00	
316	1.896000e+00	2.047105e+01	2.386337e+01	1.854293e+00	
317	1.902000e+00	2.047086e+01	2.386230e+01	1.860203e+00	
318	1.908000e+00	2.047067e+01	2.386124e+01	1.866113e+00	
319	1.914000e+00	2.047049e+01	2.386018e+01	1.872023e+00	
320	1.920000e+00	2.047030e+01	2.385911e+01	1.877932e+00	
321	1.926000e+00	2.047011e+01	2.385805e+01	1.883842e+00	
322	1.932000e+00	2.046993e+01	2.385699e+01	1.889751e+00	
323	1.938000e+00	2.046974e+01	2.385593e+01	1.895661e+00	
324	1.944000e+00	2.046955e+01	2.385486e+01	1.901570e+00	
325	1.950000e+00	2.046937e+01	2.385380e+01	1.907480e+00	
326	1.956000e+00	2.046918e+01	2.385274e+01	1.913389e+00	
327	1.962000e+00	2.046899e+01	2.385168e+01	1.919298e+00	
328	1.968000e+00	2.046881e+01	2.385062e+01	1.925207e+00	
329	1.974000e+00	2.046862e+01	2.384956e+01	1.931117e+00	
330	1.980000e+00	2.046843e+01	2.384849e+01	1.937026e+00	
331	1.986000e+00	2.046824e+01	2.384743e+01	1.942935e+00	
332	1.992000e+00	2.046806e+01	2.384637e+01	1.948844e+00	
333	1.998000e+00	2.046787e+01	2.384531e+01	1.954753e+00	
334	2.004000e+00	2.046768e+01	2.384425e+01	1.960662e+00	
335	2.010000e+00	2.046750e+01	2.384319e+01	1.966571e+00	
336	2.016000e+00	2.046731e+01	2.384213e+01	1.972480e+00	
337	2.022000e+00	2.046712e+01	2.384107e+01	1.978388e+00	
338	2.028000e+00	2.046693e+01	2.384001e+01	1.984297e+00	
339	2.034000e+00	2.046674e+01	2.383895e+01	1.990206e+00	
340	2.040000e+00	2.046656e+01	2.383789e+01	1.996115e+00	
341	2.046000e+00	2.046637e+01	2.383683e+01	2.002023e+00	
342	2.052000e+00	2.046618e+01	2.383577e+01	2.007932e+00	
343	2.058000e+00	2.046599e+01	2.383471e+01	2.013840e+00	
344	2.064000e+00	2.046581e+01	2.383365e+01	2.019749e+00	

Index   i-sweep         v(out)          v(in)           v_vcur_1#branch 
--------------------------------------------------------------------------------
345	2.070000e+00	2.046562e+01	2.383259e+01	2.025657e+00	
346	2.076000e+00	2.046543e+01	2.383154e+01	2.031566e+00	
347	2.082000e+00	2.046524e+01	2.383048e+01	2.037474e+00	
348	2.088000e+00	2.046505e+01	2.382942e+01	2.043382e+00	
349	2.094000e+00	2.046486e+01	2.382836e+01	2.049291e+00	
350	2.100000e+00	2.046468e+01	2.382730e+01	2.055199e+00	
351	2.106000e+00	2.046449e+01	2.382624e+01	2.061107e+00	
352	2.112000e+00	2.046430e+01	2.382518e+01	2.067015e+00	
353	2.118000e+00	2.046411e+01	2.382413e+01	2.072923e+00	
354	2.124000e+00	2.046392e+01	2.382307e+01	2.078831e+00	
355	2.130000e+00	2.046373e+01	2.382201e+01	2.084739e+00	
356	2.136000e+00	2.046354e+01	2.382095e+01	2.090647e+00	
357	2.142000e+00	2.046335e+01	2.381990e+01	2.096555e+00	
358	2.148000e+00	2.046317e+01	2.381884e+01	2.102463e+00	
359	2.154000e+00	2.046298e+01	2.381778e+01	2.108370e+00	
360	2.160000e+00	2.046279e+01	2.381672e+01	2.114278e+00	
361	2.166000e+00	2.046260e+01	2.381567e+01	2.120186e+00	
362	2.172000e+00	2.046241e+01	2.381461e+01	2.126093e+00	
363	2.178000e+00	2.046222e+01	2.381355e+01	2.132001e+00	
364	2.184000e+00	2.046203e+01	2.381250e+01	2.137908e+00	
365	2.190000e+00	2.046184e+01	2.381144e+01	2.143816e+00	
366	2.196000e+00	2.046165e+01	2.381038e+01	2.149723e+00	
367	2.202000e+00	2.046146e+01	2.380933e+01	2.155631e+00	
368	2.208000e+00	2.046127e+01	2.380827e+01	2.161538e+00	
369	2.214000e+00	2.046108e+01	2.380721e+01	2.167445e+00	
370	2.220000e+00	2.046088e+01	2.380616e+01	2.173353e+00	
371	2.226000e+00	2.046069e+01	2.380510e+01	2.179260e+00	
372	2.232000e+00	2.046050e+01	2.380405e+01	2.185167e+00	
373	2.238000e+00	2.046031e+01	2.380299e+01	2.191074e+00	
374	2.244000e+00	2.046012e+01	2.380193e+01	2.196981e+00	
375	2.250000e+00	2.045993e+01	2.380088e+01	2.202888e+00	
376	2.256000e+00	2.045974e+01	2.379982e+01	2.208795e+00	
377	2.262000e+00	2.045954e+01	2.379877e+01	2.214702e+00	
378	2.268000e+00	2.045935e+01	2.379771e+01	2.220609e+00	
379	2.274000e+00	2.045916e+01	2.379666e+01	2.226516e+00	
380	2.280000e+00	2.045897e+01	2.379560e+01	2.232422e+00	
381	2.286000e+00	2.045877e+01	2.379455e+01	2.238329e+00	
382	2.292000e+00	2.045858e+01	2.379349e+01	2.244236e+00	
383	2.298000e+00	2.045839e+01	2.379244e+01	2.250142e+00	
384	2.304000e+00	2.045820e+01	2.379138e+01	2.256049e+00	
385	2.310000e+00	2.045800e+01	2.379033e+01	2.261955e+00	
386	2.316000e+00	2.045781e+01	2.378927e+01	2.267862e+00	
387	2.322000e+00	2.045761e+01	2.378822e+01	2.273768e+00	
388	2.328000e+00	2.045742e+01	2.378716e+01	2.279675e+00	
389	2.334000e+00	2.045722e+01	2.378611e+01	2.285581e+00	
390	2.340000e+00	2.045703e+01	2.378506e+01	2.291487e+00	
391	2.346000e+00	2.045683e+01	2.378400e+01	2.297393e+00	
392	2.352000e+00	2.045664e+01	2.378295e+01	2.303300e+00	
393	2.358000e+00	2.045644e+01	2.378189e+01	2.309206e+00	
394	2.364000e+00	2.045624e+01	2.378084e+01	2.315112e+00	
395	2.370000e+00	2.045605e+01	2.377979e+01	2.321018e+00	
396	2.376000e+00	2.045585e+01	2.377873e+01	2.326924e+00	
397	2.382000e+00	2.045565e+01	2.377768e+01	2.332830e+00	
398	2.388000e+00	2.045546e+01	2.377663e+01	2.338736e+00	
399	2.394000e+00	2.045526e+01	2.377557e+01	2.344641e+00	
400	2.400000e+00	2.045506e+01	2.377452e+01	2.350547e+00	
401	2.406000e+00	2.045486e+01	2.377347e+01	2.356453e+00	
402	2.412000e+00	2.045466e+01	2.377241e+01	2.362359e+00	

Index   i-sweep         v(out)          v(in)           v_vcur_1#branch 
--------------------------------------------------------------------------------
403	2.418000e+00	2.045446e+01	2.377136e+01	2.368264e+00	
404	2.424000e+00	2.045426e+01	2.377031e+01	2.374170e+00	
405	2.430000e+00	2.045406e+01	2.376925e+01	2.380075e+00	
406	2.436000e+00	2.045386e+01	2.376820e+01	2.385981e+00	
407	2.442000e+00	2.045365e+01	2.376715e+01	2.391886e+00	
408	2.448000e+00	2.045345e+01	2.376610e+01	2.397792e+00	
409	2.454000e+00	2.045325e+01	2.376504e+01	2.403697e+00	
410	2.460000e+00	2.045305e+01	2.376399e+01	2.409602e+00	
411	2.466000e+00	2.045284e+01	2.376294e+01	2.415508e+00	
412	2.472000e+00	2.045264e+01	2.376189e+01	2.421413e+00	
413	2.478000e+00	2.045243e+01	2.376083e+01	2.427318e+00	
414	2.484000e+00	2.045222e+01	2.375978e+01	2.433223e+00	
415	2.490000e+00	2.045202e+01	2.375873e+01	2.439128e+00	
416	2.496000e+00	2.045181e+01	2.375768e+01	2.445033e+00	
417	2.502000e+00	2.045160e+01	2.375663e+01	2.450938e+00	
418	2.508000e+00	2.045139e+01	2.375557e+01	2.456843e+00	
419	2.514000e+00	2.045118e+01	2.375452e+01	2.462748e+00	
420	2.520000e+00	2.045097e+01	2.375347e+01	2.468653e+00	
421	2.526000e+00	2.045076e+01	2.375242e+01	2.474557e+00	
422	2.532000e+00	2.045055e+01	2.375137e+01	2.480462e+00	
423	2.538000e+00	2.045033e+01	2.375032e+01	2.486367e+00	
424	2.544000e+00	2.045012e+01	2.374926e+01	2.492271e+00	
425	2.550000e+00	2.044990e+01	2.374821e+01	2.498176e+00	
426	2.556000e+00	2.044969e+01	2.374716e+01	2.504081e+00	
427	2.562000e+00	2.044947e+01	2.374611e+01	2.509985e+00	
428	2.568000e+00	2.044925e+01	2.374506e+01	2.515889e+00	
429	2.574000e+00	2.044903e+01	2.374401e+01	2.521794e+00	
430	2.580000e+00	2.044881e+01	2.374296e+01	2.527698e+00	
431	2.586000e+00	2.044859e+01	2.374191e+01	2.533602e+00	
432	2.592000e+00	2.044837e+01	2.374086e+01	2.539507e+00	
433	2.598000e+00	2.044814e+01	2.373980e+01	2.545411e+00	
434	2.604000e+00	2.044791e+01	2.373875e+01	2.551315e+00	
435	2.610000e+00	2.044769e+01	2.373770e+01	2.557219e+00	
436	2.616000e+00	2.044746e+01	2.373665e+01	2.563123e+00	
437	2.622000e+00	2.044723e+01	2.373560e+01	2.569027e+00	
438	2.628000e+00	2.044700e+01	2.373455e+01	2.574931e+00	
439	2.634000e+00	2.044676e+01	2.373350e+01	2.580835e+00	
440	2.640000e+00	2.044653e+01	2.373245e+01	2.586739e+00	
441	2.646000e+00	2.044629e+01	2.373140e+01	2.592642e+00	
442	2.652000e+00	2.044605e+01	2.373035e+01	2.598546e+00	
443	2.658000e+00	2.044581e+01	2.372930e+01	2.604450e+00	
444	2.664000e+00	2.044557e+01	2.372825e+01	2.610353e+00	
445	2.670000e+00	2.044533e+01	2.372720e+01	2.616257e+00	
446	2.676000e+00	2.044508e+01	2.372615e+01	2.622161e+00	
447	2.682000e+00	2.044484e+01	2.372510e+01	2.628064e+00	
448	2.688000e+00	2.044459e+01	2.372405e+01	2.633968e+00	
449	2.694000e+00	2.044434e+01	2.372300e+01	2.639871e+00	
450	2.700000e+00	2.044408e+01	2.372195e+01	2.645774e+00	
451	2.706000e+00	2.044383e+01	2.372090e+01	2.651678e+00	
452	2.712000e+00	2.044357e+01	2.371985e+01	2.657581e+00	
453	2.718000e+00	2.044331e+01	2.371880e+01	2.663484e+00	
454	2.724000e+00	2.044304e+01	2.371775e+01	2.669387e+00	
455	2.730000e+00	2.044278e+01	2.371670e+01	2.675290e+00	
456	2.736000e+00	2.044251e+01	2.371565e+01	2.681193e+00	
457	2.742000e+00	2.044224e+01	2.371460e+01	2.687096e+00	
458	2.748000e+00	2.044197e+01	2.371355e+01	2.692999e+00	
459	2.754000e+00	2.044169e+01	2.371251e+01	2.698902e+00	
460	2.760000e+00	2.044141e+01	2.371146e+01	2.704805e+00	

Index   i-sweep         v(out)          v(in)           v_vcur_1#branch 
--------------------------------------------------------------------------------
461	2.766000e+00	2.044113e+01	2.371041e+01	2.710708e+00	
462	2.772000e+00	2.044084e+01	2.370936e+01	2.716611e+00	
463	2.778000e+00	2.044055e+01	2.370831e+01	2.722513e+00	
464	2.784000e+00	2.044026e+01	2.370726e+01	2.728416e+00	
465	2.790000e+00	2.043997e+01	2.370621e+01	2.734319e+00	
466	2.796000e+00	2.043967e+01	2.370516e+01	2.740221e+00	
467	2.802000e+00	2.043937e+01	2.370411e+01	2.746124e+00	
468	2.808000e+00	2.043907e+01	2.370306e+01	2.752026e+00	
469	2.814000e+00	2.043876e+01	2.370202e+01	2.757929e+00	
470	2.820000e+00	2.043845e+01	2.370097e+01	2.763831e+00	
471	2.826000e+00	2.043813e+01	2.369992e+01	2.769733e+00	
472	2.832000e+00	2.043781e+01	2.369887e+01	2.775636e+00	
473	2.838000e+00	2.043749e+01	2.369782e+01	2.781538e+00	
474	2.844000e+00	2.043716e+01	2.369677e+01	2.787440e+00	
475	2.850000e+00	2.043683e+01	2.369572e+01	2.793342e+00	
476	2.856000e+00	2.043649e+01	2.369468e+01	2.799244e+00	
477	2.862000e+00	2.043616e+01	2.369363e+01	2.805146e+00	
478	2.868000e+00	2.043581e+01	2.369258e+01	2.811048e+00	
479	2.874000e+00	2.043546e+01	2.369153e+01	2.816950e+00	
480	2.880000e+00	2.043511e+01	2.369048e+01	2.822852e+00	
481	2.886000e+00	2.043476e+01	2.368943e+01	2.828754e+00	
482	2.892000e+00	2.043440e+01	2.368839e+01	2.834656e+00	
483	2.898000e+00	2.043403e+01	2.368734e+01	2.840558e+00	
484	2.904000e+00	2.043366e+01	2.368629e+01	2.846459e+00	
485	2.910000e+00	2.043329e+01	2.368524e+01	2.852361e+00	
486	2.916000e+00	2.043291e+01	2.368419e+01	2.858263e+00	
487	2.922000e+00	2.043252e+01	2.368315e+01	2.864164e+00	
488	2.928000e+00	2.043213e+01	2.368210e+01	2.870066e+00	
489	2.934000e+00	2.043174e+01	2.368105e+01	2.875967e+00	
490	2.940000e+00	2.043134e+01	2.368000e+01	2.881869e+00	
491	2.946000e+00	2.043094e+01	2.367896e+01	2.887770e+00	
492	2.952000e+00	2.043053e+01	2.367791e+01	2.893671e+00	
493	2.958000e+00	2.043011e+01	2.367686e+01	2.899573e+00	
494	2.964000e+00	2.042969e+01	2.367581e+01	2.905474e+00	
495	2.970000e+00	2.042927e+01	2.367477e+01	2.911375e+00	
496	2.976000e+00	2.042884e+01	2.367372e+01	2.917276e+00	
497	2.982000e+00	2.042840e+01	2.367267e+01	2.923177e+00	
498	2.988000e+00	2.042796e+01	2.367162e+01	2.929079e+00	
499	2.994000e+00	2.042752e+01	2.367058e+01	2.934980e+00	
500	3.000000e+00	2.042707e+01	2.366953e+01	2.940881e+00	

                                 * spicenetlist
                                 DC transfer characteristic  Fri Jun 15 12:11:36  2018
--------------------------------------------------------------------------------
Index   i-sweep         v_vcur_4#branch v_vcur_2#branch v_vcur_3#branch 
--------------------------------------------------------------------------------
0	0.000000e+00	5.740119e-11	0.000000e+00	4.202767e-03	
1	6.000000e-03	1.595524e-11	6.000000e-03	1.016618e-02	
2	1.200000e-02	-2.20696e-06	1.200000e-02	1.592142e-02	
3	1.800000e-02	-4.30842e-05	1.800000e-02	1.754101e-02	
4	2.400000e-02	-9.46150e-05	2.400000e-02	1.802662e-02	
5	3.000000e-02	-1.47925e-04	3.000000e-02	1.832850e-02	
6	3.600000e-02	-2.01883e-04	3.600000e-02	1.856630e-02	
7	4.200000e-02	-2.56311e-04	4.200000e-02	1.876060e-02	
8	4.800000e-02	-3.11004e-04	4.800000e-02	1.893233e-02	
9	5.400000e-02	-3.65888e-04	5.400000e-02	1.908916e-02	
10	6.000000e-02	-4.20930e-04	6.000000e-02	1.923459e-02	
11	6.600000e-02	-4.76105e-04	6.600000e-02	1.937127e-02	
12	7.200000e-02	-5.31397e-04	7.200000e-02	1.950110e-02	
13	7.800000e-02	-5.86792e-04	7.800000e-02	1.962541e-02	
14	8.400000e-02	-6.42281e-04	8.400000e-02	1.974520e-02	
15	9.000000e-02	-6.97857e-04	9.000000e-02	1.986121e-02	
16	9.600000e-02	-7.53513e-04	9.600000e-02	1.997402e-02	
17	1.020000e-01	-8.09247e-04	1.020000e-01	2.008408e-02	
18	1.080000e-01	-8.65054e-04	1.080000e-01	2.019177e-02	
19	1.140000e-01	-9.20931e-04	1.140000e-01	2.029737e-02	
20	1.200000e-01	-9.76877e-04	1.200000e-01	2.040114e-02	
21	1.260000e-01	-1.03289e-03	1.260000e-01	2.050328e-02	
22	1.320000e-01	-1.08896e-03	1.320000e-01	2.060398e-02	
23	1.380000e-01	-1.14510e-03	1.380000e-01	2.070337e-02	
24	1.440000e-01	-1.20130e-03	1.440000e-01	2.080158e-02	
25	1.500000e-01	-1.25757e-03	1.500000e-01	2.089874e-02	
26	1.560000e-01	-1.31389e-03	1.560000e-01	2.099492e-02	
27	1.620000e-01	-1.37027e-03	1.620000e-01	2.109022e-02	
28	1.680000e-01	-1.42671e-03	1.680000e-01	2.118471e-02	
29	1.740000e-01	-1.48320e-03	1.740000e-01	2.127846e-02	
30	1.800000e-01	-1.53976e-03	1.800000e-01	2.137152e-02	
31	1.860000e-01	-1.59637e-03	1.860000e-01	2.146395e-02	
32	1.920000e-01	-1.65303e-03	1.920000e-01	2.155579e-02	
33	1.980000e-01	-1.70975e-03	1.980000e-01	2.164709e-02	
34	2.040000e-01	-1.76653e-03	2.040000e-01	2.173788e-02	
35	2.100000e-01	-1.82336e-03	2.100000e-01	2.182820e-02	
36	2.160000e-01	-1.88025e-03	2.160000e-01	2.191808e-02	
37	2.220000e-01	-1.93719e-03	2.220000e-01	2.200755e-02	
38	2.280000e-01	-1.99418e-03	2.280000e-01	2.209663e-02	
39	2.340000e-01	-2.05123e-03	2.340000e-01	2.218536e-02	
40	2.400000e-01	-2.10833e-03	2.400000e-01	2.227374e-02	
41	2.460000e-01	-2.16549e-03	2.460000e-01	2.236181e-02	
42	2.520000e-01	-2.22270e-03	2.520000e-01	2.244958e-02	
43	2.580000e-01	-2.27996e-03	2.580000e-01	2.253707e-02	
44	2.640000e-01	-2.33727e-03	2.640000e-01	2.262429e-02	
45	2.700000e-01	-2.39464e-03	2.700000e-01	2.271126e-02	
46	2.760000e-01	-2.45206e-03	2.760000e-01	2.279799e-02	
47	2.820000e-01	-2.50953e-03	2.820000e-01	2.288450e-02	
48	2.880000e-01	-2.56706e-03	2.880000e-01	2.297080e-02	
49	2.940000e-01	-2.62464e-03	2.940000e-01	2.305690e-02	
50	3.000000e-01	-2.68227e-03	3.000000e-01	2.314281e-02	
51	3.060000e-01	-2.73995e-03	3.060000e-01	2.322854e-02	
52	3.120000e-01	-2.79768e-03	3.120000e-01	2.331410e-02	
53	3.180000e-01	-2.85547e-03	3.180000e-01	2.339949e-02	
54	3.240000e-01	-2.91331e-03	3.240000e-01	2.348474e-02	

Index   i-sweep         v_vcur_4#branch v_vcur_2#branch v_vcur_3#branch 
--------------------------------------------------------------------------------
55	3.300000e-01	-2.97120e-03	3.300000e-01	2.356984e-02	
56	3.360000e-01	-3.02914e-03	3.360000e-01	2.365480e-02	
57	3.420000e-01	-3.08713e-03	3.420000e-01	2.373964e-02	
58	3.480000e-01	-3.14517e-03	3.480000e-01	2.382434e-02	
59	3.540000e-01	-3.20327e-03	3.540000e-01	2.390893e-02	
60	3.600000e-01	-3.26142e-03	3.600000e-01	2.399341e-02	
61	3.660000e-01	-3.31962e-03	3.660000e-01	2.407778e-02	
62	3.720000e-01	-3.37787e-03	3.720000e-01	2.416205e-02	
63	3.780000e-01	-3.43617e-03	3.780000e-01	2.424623e-02	
64	3.840000e-01	-3.49452e-03	3.840000e-01	2.433031e-02	
65	3.900000e-01	-3.55292e-03	3.900000e-01	2.441431e-02	
66	3.960000e-01	-3.61138e-03	3.960000e-01	2.449822e-02	
67	4.020000e-01	-3.66988e-03	4.020000e-01	2.458206e-02	
68	4.080000e-01	-3.72844e-03	4.080000e-01	2.466582e-02	
69	4.140000e-01	-3.78705e-03	4.140000e-01	2.474951e-02	
70	4.200000e-01	-3.84571e-03	4.200000e-01	2.483314e-02	
71	4.260000e-01	-3.90442e-03	4.260000e-01	2.491670e-02	
72	4.320000e-01	-3.96318e-03	4.320000e-01	2.500020e-02	
73	4.380000e-01	-4.02199e-03	4.380000e-01	2.508365e-02	
74	4.440000e-01	-4.08085e-03	4.440000e-01	2.516704e-02	
75	4.500000e-01	-4.13977e-03	4.500000e-01	2.525038e-02	
76	4.560000e-01	-4.19873e-03	4.560000e-01	2.533367e-02	
77	4.620000e-01	-4.25775e-03	4.620000e-01	2.541692e-02	
78	4.680000e-01	-4.31681e-03	4.680000e-01	2.550012e-02	
79	4.740000e-01	-4.37593e-03	4.740000e-01	2.558329e-02	
80	4.800000e-01	-4.43510e-03	4.800000e-01	2.566641e-02	
81	4.860000e-01	-4.49432e-03	4.860000e-01	2.574950e-02	
82	4.920000e-01	-4.55359e-03	4.920000e-01	2.583256e-02	
83	4.980000e-01	-4.61291e-03	4.980000e-01	2.591558e-02	
84	5.040000e-01	-4.67228e-03	5.040000e-01	2.599858e-02	
85	5.100000e-01	-4.73170e-03	5.100000e-01	2.608155e-02	
86	5.160000e-01	-4.79117e-03	5.160000e-01	2.616449e-02	
87	5.220000e-01	-4.85069e-03	5.220000e-01	2.624741e-02	
88	5.280000e-01	-4.91027e-03	5.280000e-01	2.633031e-02	
89	5.340000e-01	-4.96989e-03	5.340000e-01	2.641319e-02	
90	5.400000e-01	-5.02957e-03	5.400000e-01	2.649605e-02	
91	5.460000e-01	-5.08929e-03	5.460000e-01	2.657889e-02	
92	5.520000e-01	-5.14907e-03	5.520000e-01	2.666172e-02	
93	5.580000e-01	-5.20889e-03	5.580000e-01	2.674453e-02	
94	5.640000e-01	-5.26877e-03	5.640000e-01	2.682733e-02	
95	5.700000e-01	-5.32870e-03	5.700000e-01	2.691012e-02	
96	5.760000e-01	-5.38867e-03	5.760000e-01	2.699290e-02	
97	5.820000e-01	-5.44870e-03	5.820000e-01	2.707567e-02	
98	5.880000e-01	-5.50878e-03	5.880000e-01	2.715843e-02	
99	5.940000e-01	-5.56891e-03	5.940000e-01	2.724119e-02	
100	6.000000e-01	-5.62909e-03	6.000000e-01	2.732394e-02	
101	6.060000e-01	-5.68932e-03	6.060000e-01	2.740669e-02	
102	6.120000e-01	-5.74960e-03	6.120000e-01	2.748943e-02	
103	6.180000e-01	-5.80993e-03	6.180000e-01	2.757218e-02	
104	6.240000e-01	-5.87032e-03	6.240000e-01	2.765492e-02	
105	6.300000e-01	-5.93075e-03	6.300000e-01	2.773767e-02	
106	6.360000e-01	-5.99123e-03	6.360000e-01	2.782041e-02	
107	6.420000e-01	-6.05176e-03	6.420000e-01	2.790316e-02	
108	6.480000e-01	-6.11235e-03	6.480000e-01	2.798591e-02	
109	6.540000e-01	-6.17298e-03	6.540000e-01	2.806867e-02	
110	6.600000e-01	-6.23367e-03	6.600000e-01	2.815143e-02	
111	6.660000e-01	-6.29440e-03	6.660000e-01	2.823420e-02	
112	6.720000e-01	-6.35519e-03	6.720000e-01	2.831697e-02	

Index   i-sweep         v_vcur_4#branch v_vcur_2#branch v_vcur_3#branch 
--------------------------------------------------------------------------------
113	6.780000e-01	-6.41602e-03	6.780000e-01	2.839975e-02	
114	6.840000e-01	-6.47691e-03	6.840000e-01	2.848254e-02	
115	6.900000e-01	-6.53784e-03	6.900000e-01	2.856534e-02	
116	6.960000e-01	-6.59883e-03	6.960000e-01	2.864815e-02	
117	7.020000e-01	-6.65987e-03	7.020000e-01	2.873097e-02	
118	7.080000e-01	-6.72095e-03	7.080000e-01	2.881380e-02	
119	7.140000e-01	-6.78209e-03	7.140000e-01	2.889665e-02	
120	7.200000e-01	-6.84328e-03	7.200000e-01	2.897950e-02	
121	7.260000e-01	-6.90452e-03	7.260000e-01	2.906237e-02	
122	7.320000e-01	-6.96581e-03	7.320000e-01	2.914526e-02	
123	7.380000e-01	-7.02715e-03	7.380000e-01	2.922816e-02	
124	7.440000e-01	-7.08854e-03	7.440000e-01	2.931107e-02	
125	7.500000e-01	-7.14998e-03	7.500000e-01	2.939400e-02	
126	7.560000e-01	-7.21147e-03	7.560000e-01	2.947695e-02	
127	7.620000e-01	-7.27301e-03	7.620000e-01	2.955991e-02	
128	7.680000e-01	-7.33460e-03	7.680000e-01	2.964289e-02	
129	7.740000e-01	-7.39624e-03	7.740000e-01	2.972589e-02	
130	7.800000e-01	-7.45793e-03	7.800000e-01	2.980891e-02	
131	7.860000e-01	-7.51968e-03	7.860000e-01	2.989194e-02	
132	7.920000e-01	-7.58147e-03	7.920000e-01	2.997500e-02	
133	7.980000e-01	-7.64331e-03	7.980000e-01	3.005807e-02	
134	8.040000e-01	-7.70520e-03	8.040000e-01	3.014117e-02	
135	8.100000e-01	-7.76715e-03	8.100000e-01	3.022429e-02	
136	8.160000e-01	-7.82914e-03	8.160000e-01	3.030743e-02	
137	8.220000e-01	-7.89119e-03	8.220000e-01	3.039059e-02	
138	8.280000e-01	-7.95328e-03	8.280000e-01	3.047377e-02	
139	8.340000e-01	-8.01543e-03	8.340000e-01	3.055698e-02	
140	8.400000e-01	-8.07762e-03	8.400000e-01	3.064021e-02	
141	8.460000e-01	-8.13987e-03	8.460000e-01	3.072346e-02	
142	8.520000e-01	-8.20216e-03	8.520000e-01	3.080674e-02	
143	8.580000e-01	-8.26451e-03	8.580000e-01	3.089004e-02	
144	8.640000e-01	-8.32691e-03	8.640000e-01	3.097337e-02	
145	8.700000e-01	-8.38935e-03	8.700000e-01	3.105672e-02	
146	8.760000e-01	-8.45185e-03	8.760000e-01	3.114010e-02	
147	8.820000e-01	-8.51440e-03	8.820000e-01	3.122350e-02	
148	8.880000e-01	-8.57700e-03	8.880000e-01	3.130693e-02	
149	8.940000e-01	-8.63964e-03	8.940000e-01	3.139039e-02	
150	9.000000e-01	-8.70234e-03	9.000000e-01	3.147387e-02	
151	9.060000e-01	-8.76509e-03	9.060000e-01	3.155738e-02	
152	9.120000e-01	-8.82789e-03	9.120000e-01	3.164092e-02	
153	9.180000e-01	-8.89074e-03	9.180000e-01	3.172449e-02	
154	9.240000e-01	-8.95364e-03	9.240000e-01	3.180808e-02	
155	9.300000e-01	-9.01659e-03	9.300000e-01	3.189171e-02	
156	9.360000e-01	-9.07959e-03	9.360000e-01	3.197536e-02	
157	9.420000e-01	-9.14264e-03	9.420000e-01	3.205904e-02	
158	9.480000e-01	-9.20574e-03	9.480000e-01	3.214275e-02	
159	9.540000e-01	-9.26890e-03	9.540000e-01	3.222649e-02	
160	9.600000e-01	-9.33210e-03	9.600000e-01	3.231026e-02	
161	9.660000e-01	-9.39535e-03	9.660000e-01	3.239406e-02	
162	9.720000e-01	-9.45865e-03	9.720000e-01	3.247789e-02	
163	9.780000e-01	-9.52201e-03	9.780000e-01	3.256175e-02	
164	9.840000e-01	-9.58541e-03	9.840000e-01	3.264565e-02	
165	9.900000e-01	-9.64886e-03	9.900000e-01	3.272957e-02	
166	9.960000e-01	-9.71237e-03	9.960000e-01	3.281353e-02	
167	1.002000e+00	-9.77592e-03	1.002000e+00	3.289752e-02	
168	1.008000e+00	-9.83953e-03	1.008000e+00	3.298154e-02	
169	1.014000e+00	-9.90318e-03	1.014000e+00	3.306559e-02	
170	1.020000e+00	-9.96689e-03	1.020000e+00	3.314967e-02	

Index   i-sweep         v_vcur_4#branch v_vcur_2#branch v_vcur_3#branch 
--------------------------------------------------------------------------------
171	1.026000e+00	-1.00306e-02	1.026000e+00	3.323379e-02	
172	1.032000e+00	-1.00944e-02	1.032000e+00	3.331794e-02	
173	1.038000e+00	-1.01583e-02	1.038000e+00	3.340212e-02	
174	1.044000e+00	-1.02222e-02	1.044000e+00	3.348634e-02	
175	1.050000e+00	-1.02862e-02	1.050000e+00	3.357059e-02	
176	1.056000e+00	-1.03502e-02	1.056000e+00	3.365488e-02	
177	1.062000e+00	-1.04142e-02	1.062000e+00	3.373920e-02	
178	1.068000e+00	-1.04783e-02	1.068000e+00	3.382355e-02	
179	1.074000e+00	-1.05425e-02	1.074000e+00	3.390794e-02	
180	1.080000e+00	-1.06067e-02	1.080000e+00	3.399236e-02	
181	1.086000e+00	-1.06710e-02	1.086000e+00	3.407681e-02	
182	1.092000e+00	-1.07353e-02	1.092000e+00	3.416131e-02	
183	1.098000e+00	-1.07996e-02	1.098000e+00	3.424583e-02	
184	1.104000e+00	-1.08641e-02	1.104000e+00	3.433040e-02	
185	1.110000e+00	-1.09285e-02	1.110000e+00	3.441499e-02	
186	1.116000e+00	-1.09930e-02	1.116000e+00	3.449963e-02	
187	1.122000e+00	-1.10576e-02	1.122000e+00	3.458430e-02	
188	1.128000e+00	-1.11222e-02	1.128000e+00	3.466900e-02	
189	1.134000e+00	-1.11869e-02	1.134000e+00	3.475374e-02	
190	1.140000e+00	-1.12516e-02	1.140000e+00	3.483852e-02	
191	1.146000e+00	-1.13163e-02	1.146000e+00	3.492334e-02	
192	1.152000e+00	-1.13811e-02	1.152000e+00	3.500819e-02	
193	1.158000e+00	-1.14460e-02	1.158000e+00	3.509308e-02	
194	1.164000e+00	-1.15109e-02	1.164000e+00	3.517800e-02	
195	1.170000e+00	-1.15759e-02	1.170000e+00	3.526297e-02	
196	1.176000e+00	-1.16409e-02	1.176000e+00	3.534797e-02	
197	1.182000e+00	-1.17060e-02	1.182000e+00	3.543300e-02	
198	1.188000e+00	-1.17711e-02	1.188000e+00	3.551808e-02	
199	1.194000e+00	-1.18363e-02	1.194000e+00	3.560319e-02	
200	1.200000e+00	-1.19015e-02	1.200000e+00	3.568834e-02	
201	1.206000e+00	-1.19667e-02	1.206000e+00	3.577353e-02	
202	1.212000e+00	-1.20321e-02	1.212000e+00	3.585876e-02	
203	1.218000e+00	-1.20974e-02	1.218000e+00	3.594403e-02	
204	1.224000e+00	-1.21628e-02	1.224000e+00	3.602933e-02	
205	1.230000e+00	-1.22283e-02	1.230000e+00	3.611468e-02	
206	1.236000e+00	-1.22938e-02	1.236000e+00	3.620006e-02	
207	1.242000e+00	-1.23594e-02	1.242000e+00	3.628548e-02	
208	1.248000e+00	-1.24250e-02	1.248000e+00	3.637094e-02	
209	1.254000e+00	-1.24907e-02	1.254000e+00	3.645644e-02	
210	1.260000e+00	-1.25564e-02	1.260000e+00	3.654197e-02	
211	1.266000e+00	-1.26222e-02	1.266000e+00	3.662755e-02	
212	1.272000e+00	-1.26880e-02	1.272000e+00	3.671317e-02	
213	1.278000e+00	-1.27539e-02	1.278000e+00	3.679883e-02	
214	1.284000e+00	-1.28198e-02	1.284000e+00	3.688452e-02	
215	1.290000e+00	-1.28858e-02	1.290000e+00	3.697026e-02	
216	1.296000e+00	-1.29518e-02	1.296000e+00	3.705603e-02	
217	1.302000e+00	-1.30179e-02	1.302000e+00	3.714185e-02	
218	1.308000e+00	-1.30840e-02	1.308000e+00	3.722771e-02	
219	1.314000e+00	-1.31502e-02	1.314000e+00	3.731360e-02	
220	1.320000e+00	-1.32164e-02	1.320000e+00	3.739954e-02	
221	1.326000e+00	-1.32827e-02	1.326000e+00	3.748552e-02	
222	1.332000e+00	-1.33490e-02	1.332000e+00	3.757154e-02	
223	1.338000e+00	-1.34154e-02	1.338000e+00	3.765760e-02	
224	1.344000e+00	-1.34818e-02	1.344000e+00	3.774370e-02	
225	1.350000e+00	-1.35483e-02	1.350000e+00	3.782984e-02	
226	1.356000e+00	-1.36148e-02	1.356000e+00	3.791602e-02	
227	1.362000e+00	-1.36814e-02	1.362000e+00	3.800224e-02	
228	1.368000e+00	-1.37480e-02	1.368000e+00	3.808850e-02	

Index   i-sweep         v_vcur_4#branch v_vcur_2#branch v_vcur_3#branch 
--------------------------------------------------------------------------------
229	1.374000e+00	-1.38147e-02	1.374000e+00	3.817481e-02	
230	1.380000e+00	-1.38814e-02	1.380000e+00	3.826116e-02	
231	1.386000e+00	-1.39482e-02	1.386000e+00	3.834754e-02	
232	1.392000e+00	-1.40150e-02	1.392000e+00	3.843397e-02	
233	1.398000e+00	-1.40819e-02	1.398000e+00	3.852045e-02	
234	1.404000e+00	-1.41488e-02	1.404000e+00	3.860696e-02	
235	1.410000e+00	-1.42158e-02	1.410000e+00	3.869351e-02	
236	1.416000e+00	-1.42829e-02	1.416000e+00	3.878011e-02	
237	1.422000e+00	-1.43499e-02	1.422000e+00	3.886675e-02	
238	1.428000e+00	-1.44171e-02	1.428000e+00	3.895343e-02	
239	1.434000e+00	-1.44843e-02	1.434000e+00	3.904016e-02	
240	1.440000e+00	-1.45515e-02	1.440000e+00	3.912692e-02	
241	1.446000e+00	-1.46188e-02	1.446000e+00	3.921373e-02	
242	1.452000e+00	-1.46861e-02	1.452000e+00	3.930058e-02	
243	1.458000e+00	-1.47535e-02	1.458000e+00	3.938747e-02	
244	1.464000e+00	-1.48209e-02	1.464000e+00	3.947441e-02	
245	1.470000e+00	-1.48884e-02	1.470000e+00	3.956139e-02	
246	1.476000e+00	-1.49560e-02	1.476000e+00	3.964841e-02	
247	1.482000e+00	-1.50235e-02	1.482000e+00	3.973547e-02	
248	1.488000e+00	-1.50912e-02	1.488000e+00	3.982258e-02	
249	1.494000e+00	-1.51589e-02	1.494000e+00	3.990973e-02	
250	1.500000e+00	-1.52266e-02	1.500000e+00	3.999692e-02	
251	1.506000e+00	-1.52944e-02	1.506000e+00	4.008416e-02	
252	1.512000e+00	-1.53622e-02	1.512000e+00	4.017144e-02	
253	1.518000e+00	-1.54301e-02	1.518000e+00	4.025876e-02	
254	1.524000e+00	-1.54981e-02	1.524000e+00	4.034613e-02	
255	1.530000e+00	-1.55661e-02	1.530000e+00	4.043353e-02	
256	1.536000e+00	-1.56341e-02	1.536000e+00	4.052099e-02	
257	1.542000e+00	-1.57022e-02	1.542000e+00	4.060848e-02	
258	1.548000e+00	-1.57703e-02	1.548000e+00	4.069602e-02	
259	1.554000e+00	-1.58385e-02	1.554000e+00	4.078361e-02	
260	1.560000e+00	-1.59068e-02	1.560000e+00	4.087124e-02	
261	1.566000e+00	-1.59751e-02	1.566000e+00	4.095891e-02	
262	1.572000e+00	-1.60434e-02	1.572000e+00	4.104662e-02	
263	1.578000e+00	-1.61118e-02	1.578000e+00	4.113438e-02	
264	1.584000e+00	-1.61803e-02	1.584000e+00	4.122218e-02	
265	1.590000e+00	-1.62488e-02	1.590000e+00	4.131003e-02	
266	1.596000e+00	-1.63173e-02	1.596000e+00	4.139792e-02	
267	1.602000e+00	-1.63859e-02	1.602000e+00	4.148586e-02	
268	1.608000e+00	-1.64546e-02	1.608000e+00	4.157384e-02	
269	1.614000e+00	-1.65233e-02	1.614000e+00	4.166186e-02	
270	1.620000e+00	-1.65920e-02	1.620000e+00	4.174993e-02	
271	1.626000e+00	-1.66608e-02	1.626000e+00	4.183804e-02	
272	1.632000e+00	-1.67297e-02	1.632000e+00	4.192620e-02	
273	1.638000e+00	-1.67986e-02	1.638000e+00	4.201440e-02	
274	1.644000e+00	-1.68675e-02	1.644000e+00	4.210265e-02	
275	1.650000e+00	-1.69365e-02	1.650000e+00	4.219094e-02	
276	1.656000e+00	-1.70056e-02	1.656000e+00	4.227928e-02	
277	1.662000e+00	-1.70747e-02	1.662000e+00	4.236766e-02	
278	1.668000e+00	-1.71438e-02	1.668000e+00	4.245608e-02	
279	1.674000e+00	-1.72130e-02	1.674000e+00	4.254455e-02	
280	1.680000e+00	-1.72823e-02	1.680000e+00	4.263307e-02	
281	1.686000e+00	-1.73516e-02	1.686000e+00	4.272163e-02	
282	1.692000e+00	-1.74210e-02	1.692000e+00	4.281023e-02	
283	1.698000e+00	-1.74904e-02	1.698000e+00	4.289888e-02	
284	1.704000e+00	-1.75598e-02	1.704000e+00	4.298758e-02	
285	1.710000e+00	-1.76293e-02	1.710000e+00	4.307632e-02	
286	1.716000e+00	-1.76989e-02	1.716000e+00	4.316511e-02	

Index   i-sweep         v_vcur_4#branch v_vcur_2#branch v_vcur_3#branch 
--------------------------------------------------------------------------------
287	1.722000e+00	-1.77685e-02	1.722000e+00	4.325394e-02	
288	1.728000e+00	-1.78382e-02	1.728000e+00	4.334281e-02	
289	1.734000e+00	-1.79079e-02	1.734000e+00	4.343174e-02	
290	1.740000e+00	-1.79777e-02	1.740000e+00	4.352070e-02	
291	1.746000e+00	-1.80475e-02	1.746000e+00	4.360972e-02	
292	1.752000e+00	-1.81173e-02	1.752000e+00	4.369878e-02	
293	1.758000e+00	-1.81872e-02	1.758000e+00	4.378788e-02	
294	1.764000e+00	-1.82572e-02	1.764000e+00	4.387703e-02	
295	1.770000e+00	-1.83272e-02	1.770000e+00	4.396622e-02	
296	1.776000e+00	-1.83973e-02	1.776000e+00	4.405547e-02	
297	1.782000e+00	-1.84674e-02	1.782000e+00	4.414475e-02	
298	1.788000e+00	-1.85376e-02	1.788000e+00	4.423409e-02	
299	1.794000e+00	-1.86078e-02	1.794000e+00	4.432346e-02	
300	1.800000e+00	-1.86781e-02	1.800000e+00	4.441289e-02	
301	1.806000e+00	-1.87484e-02	1.806000e+00	4.450236e-02	
302	1.812000e+00	-1.88188e-02	1.812000e+00	4.459188e-02	
303	1.818000e+00	-1.88892e-02	1.818000e+00	4.468144e-02	
304	1.824000e+00	-1.89596e-02	1.824000e+00	4.477105e-02	
305	1.830000e+00	-1.90302e-02	1.830000e+00	4.486070e-02	
306	1.836000e+00	-1.91007e-02	1.836000e+00	4.495040e-02	
307	1.842000e+00	-1.91714e-02	1.842000e+00	4.504015e-02	
308	1.848000e+00	-1.92420e-02	1.848000e+00	4.512994e-02	
309	1.854000e+00	-1.93128e-02	1.854000e+00	4.521978e-02	
310	1.860000e+00	-1.93835e-02	1.860000e+00	4.530967e-02	
311	1.866000e+00	-1.94544e-02	1.866000e+00	4.539960e-02	
312	1.872000e+00	-1.95252e-02	1.872000e+00	4.548958e-02	
313	1.878000e+00	-1.95962e-02	1.878000e+00	4.557960e-02	
314	1.884000e+00	-1.96672e-02	1.884000e+00	4.566967e-02	
315	1.890000e+00	-1.97382e-02	1.890000e+00	4.575979e-02	
316	1.896000e+00	-1.98093e-02	1.896000e+00	4.584996e-02	
317	1.902000e+00	-1.98804e-02	1.902000e+00	4.594017e-02	
318	1.908000e+00	-1.99516e-02	1.908000e+00	4.603042e-02	
319	1.914000e+00	-2.00228e-02	1.914000e+00	4.612073e-02	
320	1.920000e+00	-2.00941e-02	1.920000e+00	4.621108e-02	
321	1.926000e+00	-2.01654e-02	1.926000e+00	4.630148e-02	
322	1.932000e+00	-2.02368e-02	1.932000e+00	4.639192e-02	
323	1.938000e+00	-2.03082e-02	1.938000e+00	4.648241e-02	
324	1.944000e+00	-2.03797e-02	1.944000e+00	4.657295e-02	
325	1.950000e+00	-2.04513e-02	1.950000e+00	4.666354e-02	
326	1.956000e+00	-2.05229e-02	1.956000e+00	4.675417e-02	
327	1.962000e+00	-2.05945e-02	1.962000e+00	4.684485e-02	
328	1.968000e+00	-2.06662e-02	1.968000e+00	4.693557e-02	
329	1.974000e+00	-2.07379e-02	1.974000e+00	4.702635e-02	
330	1.980000e+00	-2.08097e-02	1.980000e+00	4.711717e-02	
331	1.986000e+00	-2.08816e-02	1.986000e+00	4.720803e-02	
332	1.992000e+00	-2.09535e-02	1.992000e+00	4.729895e-02	
333	1.998000e+00	-2.10254e-02	1.998000e+00	4.738991e-02	
334	2.004000e+00	-2.10974e-02	2.004000e+00	4.748092e-02	
335	2.010000e+00	-2.11694e-02	2.010000e+00	4.757197e-02	
336	2.016000e+00	-2.12415e-02	2.016000e+00	4.766308e-02	
337	2.022000e+00	-2.13137e-02	2.022000e+00	4.775423e-02	
338	2.028000e+00	-2.13859e-02	2.028000e+00	4.784542e-02	
339	2.034000e+00	-2.14581e-02	2.034000e+00	4.793667e-02	
340	2.040000e+00	-2.15304e-02	2.040000e+00	4.802796e-02	
341	2.046000e+00	-2.16028e-02	2.046000e+00	4.811930e-02	
342	2.052000e+00	-2.16752e-02	2.052000e+00	4.821069e-02	
343	2.058000e+00	-2.17476e-02	2.058000e+00	4.830212e-02	
344	2.064000e+00	-2.18201e-02	2.064000e+00	4.839360e-02	

Index   i-sweep         v_vcur_4#branch v_vcur_2#branch v_vcur_3#branch 
--------------------------------------------------------------------------------
345	2.070000e+00	-2.18927e-02	2.070000e+00	4.848513e-02	
346	2.076000e+00	-2.19653e-02	2.076000e+00	4.857671e-02	
347	2.082000e+00	-2.20379e-02	2.082000e+00	4.866833e-02	
348	2.088000e+00	-2.21106e-02	2.088000e+00	4.876000e-02	
349	2.094000e+00	-2.21834e-02	2.094000e+00	4.885172e-02	
350	2.100000e+00	-2.22562e-02	2.100000e+00	4.894349e-02	
351	2.106000e+00	-2.23290e-02	2.106000e+00	4.903531e-02	
352	2.112000e+00	-2.24020e-02	2.112000e+00	4.912717e-02	
353	2.118000e+00	-2.24749e-02	2.118000e+00	4.921908e-02	
354	2.124000e+00	-2.25479e-02	2.124000e+00	4.931104e-02	
355	2.130000e+00	-2.26210e-02	2.130000e+00	4.940304e-02	
356	2.136000e+00	-2.26941e-02	2.136000e+00	4.949510e-02	
357	2.142000e+00	-2.27673e-02	2.142000e+00	4.958720e-02	
358	2.148000e+00	-2.28405e-02	2.148000e+00	4.967935e-02	
359	2.154000e+00	-2.29137e-02	2.154000e+00	4.977154e-02	
360	2.160000e+00	-2.29870e-02	2.160000e+00	4.986379e-02	
361	2.166000e+00	-2.30604e-02	2.166000e+00	4.995608e-02	
362	2.172000e+00	-2.31338e-02	2.172000e+00	5.004842e-02	
363	2.178000e+00	-2.32073e-02	2.178000e+00	5.014081e-02	
364	2.184000e+00	-2.32808e-02	2.184000e+00	5.023325e-02	
365	2.190000e+00	-2.33544e-02	2.190000e+00	5.032573e-02	
366	2.196000e+00	-2.34280e-02	2.196000e+00	5.041827e-02	
367	2.202000e+00	-2.35017e-02	2.202000e+00	5.051085e-02	
368	2.208000e+00	-2.35754e-02	2.208000e+00	5.060348e-02	
369	2.214000e+00	-2.36492e-02	2.214000e+00	5.069616e-02	
370	2.220000e+00	-2.37230e-02	2.220000e+00	5.078888e-02	
371	2.226000e+00	-2.37969e-02	2.226000e+00	5.088165e-02	
372	2.232000e+00	-2.38708e-02	2.232000e+00	5.097448e-02	
373	2.238000e+00	-2.39448e-02	2.238000e+00	5.106735e-02	
374	2.244000e+00	-2.40188e-02	2.244000e+00	5.116027e-02	
375	2.250000e+00	-2.40929e-02	2.250000e+00	5.125323e-02	
376	2.256000e+00	-2.41670e-02	2.256000e+00	5.134625e-02	
377	2.262000e+00	-2.42412e-02	2.262000e+00	5.143931e-02	
378	2.268000e+00	-2.43154e-02	2.268000e+00	5.153242e-02	
379	2.274000e+00	-2.43897e-02	2.274000e+00	5.162558e-02	
380	2.280000e+00	-2.44640e-02	2.280000e+00	5.171879e-02	
381	2.286000e+00	-2.45384e-02	2.286000e+00	5.181205e-02	
382	2.292000e+00	-2.46128e-02	2.292000e+00	5.190535e-02	
383	2.298000e+00	-2.46873e-02	2.298000e+00	5.199870e-02	
384	2.304000e+00	-2.47618e-02	2.304000e+00	5.209210e-02	
385	2.310000e+00	-2.48364e-02	2.310000e+00	5.218555e-02	
386	2.316000e+00	-2.49111e-02	2.316000e+00	5.227905e-02	
387	2.322000e+00	-2.49857e-02	2.322000e+00	5.237260e-02	
388	2.328000e+00	-2.50605e-02	2.328000e+00	5.246620e-02	
389	2.334000e+00	-2.51353e-02	2.334000e+00	5.255984e-02	
390	2.340000e+00	-2.52101e-02	2.340000e+00	5.265353e-02	
391	2.346000e+00	-2.52850e-02	2.346000e+00	5.274727e-02	
392	2.352000e+00	-2.53599e-02	2.352000e+00	5.284106e-02	
393	2.358000e+00	-2.54349e-02	2.358000e+00	5.293490e-02	
394	2.364000e+00	-2.55100e-02	2.364000e+00	5.302879e-02	
395	2.370000e+00	-2.55851e-02	2.370000e+00	5.312272e-02	
396	2.376000e+00	-2.56602e-02	2.376000e+00	5.321671e-02	
397	2.382000e+00	-2.57354e-02	2.382000e+00	5.331074e-02	
398	2.388000e+00	-2.58106e-02	2.388000e+00	5.340482e-02	
399	2.394000e+00	-2.58859e-02	2.394000e+00	5.349895e-02	
400	2.400000e+00	-2.59613e-02	2.400000e+00	5.359313e-02	
401	2.406000e+00	-2.60367e-02	2.406000e+00	5.368735e-02	
402	2.412000e+00	-2.61121e-02	2.412000e+00	5.378163e-02	

Index   i-sweep         v_vcur_4#branch v_vcur_2#branch v_vcur_3#branch 
--------------------------------------------------------------------------------
403	2.418000e+00	-2.61876e-02	2.418000e+00	5.387595e-02	
404	2.424000e+00	-2.62632e-02	2.424000e+00	5.397033e-02	
405	2.430000e+00	-2.63388e-02	2.430000e+00	5.406475e-02	
406	2.436000e+00	-2.64144e-02	2.436000e+00	5.415922e-02	
407	2.442000e+00	-2.64901e-02	2.442000e+00	5.425374e-02	
408	2.448000e+00	-2.65659e-02	2.448000e+00	5.434830e-02	
409	2.454000e+00	-2.66417e-02	2.454000e+00	5.444292e-02	
410	2.460000e+00	-2.67175e-02	2.460000e+00	5.453759e-02	
411	2.466000e+00	-2.67934e-02	2.466000e+00	5.463230e-02	
412	2.472000e+00	-2.68694e-02	2.472000e+00	5.472706e-02	
413	2.478000e+00	-2.69454e-02	2.478000e+00	5.482187e-02	
414	2.484000e+00	-2.70215e-02	2.484000e+00	5.491673e-02	
415	2.490000e+00	-2.70976e-02	2.490000e+00	5.501164e-02	
416	2.496000e+00	-2.71737e-02	2.496000e+00	5.510660e-02	
417	2.502000e+00	-2.72499e-02	2.502000e+00	5.520161e-02	
418	2.508000e+00	-2.73262e-02	2.508000e+00	5.529666e-02	
419	2.514000e+00	-2.74025e-02	2.514000e+00	5.539176e-02	
420	2.520000e+00	-2.74789e-02	2.520000e+00	5.548692e-02	
421	2.526000e+00	-2.75553e-02	2.526000e+00	5.558212e-02	
422	2.532000e+00	-2.76317e-02	2.532000e+00	5.567737e-02	
423	2.538000e+00	-2.77082e-02	2.538000e+00	5.577266e-02	
424	2.544000e+00	-2.77848e-02	2.544000e+00	5.586801e-02	
425	2.550000e+00	-2.78614e-02	2.550000e+00	5.596341e-02	
426	2.556000e+00	-2.79381e-02	2.556000e+00	5.605885e-02	
427	2.562000e+00	-2.80148e-02	2.562000e+00	5.615434e-02	
428	2.568000e+00	-2.80916e-02	2.568000e+00	5.624989e-02	
429	2.574000e+00	-2.81684e-02	2.574000e+00	5.634548e-02	
430	2.580000e+00	-2.82452e-02	2.580000e+00	5.644112e-02	
431	2.586000e+00	-2.83221e-02	2.586000e+00	5.653680e-02	
432	2.592000e+00	-2.83991e-02	2.592000e+00	5.663254e-02	
433	2.598000e+00	-2.84761e-02	2.598000e+00	5.672832e-02	
434	2.604000e+00	-2.85532e-02	2.604000e+00	5.682416e-02	
435	2.610000e+00	-2.86303e-02	2.610000e+00	5.692004e-02	
436	2.616000e+00	-2.87075e-02	2.616000e+00	5.701597e-02	
437	2.622000e+00	-2.87847e-02	2.622000e+00	5.711195e-02	
438	2.628000e+00	-2.88619e-02	2.628000e+00	5.720798e-02	
439	2.634000e+00	-2.89393e-02	2.634000e+00	5.730405e-02	
440	2.640000e+00	-2.90166e-02	2.640000e+00	5.740018e-02	
441	2.646000e+00	-2.90940e-02	2.646000e+00	5.749635e-02	
442	2.652000e+00	-2.91715e-02	2.652000e+00	5.759257e-02	
443	2.658000e+00	-2.92490e-02	2.658000e+00	5.768884e-02	
444	2.664000e+00	-2.93266e-02	2.664000e+00	5.778516e-02	
445	2.670000e+00	-2.94042e-02	2.670000e+00	5.788152e-02	
446	2.676000e+00	-2.94819e-02	2.676000e+00	5.797794e-02	
447	2.682000e+00	-2.95596e-02	2.682000e+00	5.807440e-02	
448	2.688000e+00	-2.96373e-02	2.688000e+00	5.817091e-02	
449	2.694000e+00	-2.97152e-02	2.694000e+00	5.826747e-02	
450	2.700000e+00	-2.97930e-02	2.700000e+00	5.836408e-02	
451	2.706000e+00	-2.98709e-02	2.706000e+00	5.846073e-02	
452	2.712000e+00	-2.99489e-02	2.712000e+00	5.855743e-02	
453	2.718000e+00	-3.00269e-02	2.718000e+00	5.865418e-02	
454	2.724000e+00	-3.01050e-02	2.724000e+00	5.875098e-02	
455	2.730000e+00	-3.01831e-02	2.730000e+00	5.884783e-02	
456	2.736000e+00	-3.02612e-02	2.736000e+00	5.894472e-02	
457	2.742000e+00	-3.03394e-02	2.742000e+00	5.904167e-02	
458	2.748000e+00	-3.04177e-02	2.748000e+00	5.913866e-02	
459	2.754000e+00	-3.04960e-02	2.754000e+00	5.923569e-02	
460	2.760000e+00	-3.05744e-02	2.760000e+00	5.933278e-02	

Index   i-sweep         v_vcur_4#branch v_vcur_2#branch v_vcur_3#branch 
--------------------------------------------------------------------------------
461	2.766000e+00	-3.06528e-02	2.766000e+00	5.942991e-02	
462	2.772000e+00	-3.07312e-02	2.772000e+00	5.952709e-02	
463	2.778000e+00	-3.08097e-02	2.778000e+00	5.962432e-02	
464	2.784000e+00	-3.08883e-02	2.784000e+00	5.972160e-02	
465	2.790000e+00	-3.09669e-02	2.790000e+00	5.981892e-02	
466	2.796000e+00	-3.10455e-02	2.796000e+00	5.991629e-02	
467	2.802000e+00	-3.11242e-02	2.802000e+00	6.001371e-02	
468	2.808000e+00	-3.12030e-02	2.808000e+00	6.011117e-02	
469	2.814000e+00	-3.12817e-02	2.814000e+00	6.020868e-02	
470	2.820000e+00	-3.13606e-02	2.820000e+00	6.030624e-02	
471	2.826000e+00	-3.14395e-02	2.826000e+00	6.040385e-02	
472	2.832000e+00	-3.15184e-02	2.832000e+00	6.050150e-02	
473	2.838000e+00	-3.15974e-02	2.838000e+00	6.059920e-02	
474	2.844000e+00	-3.16764e-02	2.844000e+00	6.069695e-02	
475	2.850000e+00	-3.17555e-02	2.850000e+00	6.079474e-02	
476	2.856000e+00	-3.18346e-02	2.856000e+00	6.089258e-02	
477	2.862000e+00	-3.19138e-02	2.862000e+00	6.099047e-02	
478	2.868000e+00	-3.19931e-02	2.868000e+00	6.108840e-02	
479	2.874000e+00	-3.20723e-02	2.874000e+00	6.118638e-02	
480	2.880000e+00	-3.21516e-02	2.880000e+00	6.128440e-02	
481	2.886000e+00	-3.22310e-02	2.886000e+00	6.138248e-02	
482	2.892000e+00	-3.23104e-02	2.892000e+00	6.148059e-02	
483	2.898000e+00	-3.23899e-02	2.898000e+00	6.157876e-02	
484	2.904000e+00	-3.24694e-02	2.904000e+00	6.167697e-02	
485	2.910000e+00	-3.25490e-02	2.910000e+00	6.177523e-02	
486	2.916000e+00	-3.26286e-02	2.916000e+00	6.187353e-02	
487	2.922000e+00	-3.27082e-02	2.922000e+00	6.197188e-02	
488	2.928000e+00	-3.27879e-02	2.928000e+00	6.207027e-02	
489	2.934000e+00	-3.28677e-02	2.934000e+00	6.216872e-02	
490	2.940000e+00	-3.29475e-02	2.940000e+00	6.226720e-02	
491	2.946000e+00	-3.30273e-02	2.946000e+00	6.236573e-02	
492	2.952000e+00	-3.31072e-02	2.952000e+00	6.246431e-02	
493	2.958000e+00	-3.31871e-02	2.958000e+00	6.256294e-02	
494	2.964000e+00	-3.32671e-02	2.964000e+00	6.266161e-02	
495	2.970000e+00	-3.33471e-02	2.970000e+00	6.276032e-02	
496	2.976000e+00	-3.34272e-02	2.976000e+00	6.285908e-02	
497	2.982000e+00	-3.35073e-02	2.982000e+00	6.295789e-02	
498	2.988000e+00	-3.35875e-02	2.988000e+00	6.305674e-02	
499	2.994000e+00	-3.36677e-02	2.994000e+00	6.315563e-02	
500	3.000000e+00	-3.37480e-02	3.000000e+00	6.325458e-02	

CPU time since last call: 0.075 seconds.

Total CPU time: 0.075 seconds.

Current dynamic memory usage = 0 bytes,
Dynamic memory limit = 8796093017969.824219 MB.

